OPT_V10/Two_days_MCY3_MIQCPM1/powerflow_results_t29.txt
Pandapower Network Debug Info
==================================================

BUS:
       vm_pu  va_degree      p_mw    q_mvar
0   0.992779   0.129268  0.001153  0.001137
1   0.988690   0.219244  0.001284  0.001926
2   0.984991   0.308686  0.001690  0.002998
3   0.988563   0.203740  0.002955  0.004215
4   0.999886   0.001369  0.008685  0.010333
5   0.999873   0.001504  0.010717  0.010272
6   0.999863   0.001641  0.010255  0.012882
7   0.999930   0.000910  0.000000  0.000000
8   0.999930   0.000916  0.000000  0.000000
9   1.000000   0.000000 -0.036888 -0.048864
10  1.000000   0.000007  0.000000  0.000000
--------------------------------------------------

LINE:
   p_from_mw  q_from_mvar   p_to_mw  q_to_mvar         pl_mw       ql_mvar  i_from_ka   i_to_ka      i_ka  vm_from_pu  va_from_degree  vm_to_pu  va_to_degree  loading_percent
0   0.036878     0.044864 -0.036874  -0.044861  3.298969e-06  2.572261e-06   0.002235  0.002235  0.002235    1.000000        0.000007  0.999930      0.000910         0.971875
1   0.029659     0.033489 -0.029658  -0.033488  1.547704e-06  1.206770e-06   0.001722  0.001722  0.001722    0.999930        0.000910  0.999886      0.001369         0.748678
2   0.007205     0.010372 -0.007130  -0.010314  7.461103e-05  5.817545e-05   0.018230  0.018230  0.018230    0.999930        0.000916  0.992779      0.129268         7.926105
3  -0.020972    -0.023155  0.020973   0.023155  3.376003e-07  2.632325e-07   0.001203  0.001203  0.001203    0.999873        0.001504  0.999886      0.001369         0.522872
4  -0.010255    -0.012882  0.010255   0.012882  1.326335e-07  1.034165e-07   0.000634  0.000634  0.000634    0.999863        0.001641  0.999873      0.001504         0.275590
5  -0.002985    -0.004933  0.003005   0.004948  2.011688e-05  1.568547e-05   0.008417  0.008417  0.008417    0.988690        0.219244  0.992779      0.129268         3.659390
6  -0.002955    -0.004215  0.002973   0.004229  1.810106e-05  1.411370e-05   0.007515  0.007515  0.007515    0.988563        0.203740  0.992779      0.129268         3.267518
7  -0.001690    -0.002998  0.001701   0.003007  1.104108e-05  8.608909e-06   0.005043  0.005043  0.005043    0.984991        0.308686  0.988690      0.219244         2.192454
--------------------------------------------------

TRAFO:
    p_hv_mw  q_hv_mvar   p_lv_mw  q_lv_mvar    pl_mw  ql_mvar   i_hv_ka   i_lv_ka  vm_hv_pu  va_hv_degree  vm_lv_pu  va_lv_degree  loading_percent
0  0.007215   0.011372 -0.007205  -0.010372  0.00001    0.001  0.000518  0.018230   0.99993       0.00091   0.99993      0.000916         0.134688
1  0.036888   0.048864 -0.036878  -0.044864  0.00001    0.004  0.000505  0.002235   1.00000       0.00000   1.00000      0.000007         0.153060
--------------------------------------------------
